Circuit: * D:\WILSON\Logisim\LTspice Circuits\EEPROM Programmer\Draft2.asc

WARNING: Node N004 is floating.

Per .tran options, skipping operating point for transient analysis.
Changing Tseed to 1e-008
Changing Tseed to 1e-010
Heightened Def Con from 3.02082e-010 to 1.42708e-009
Heightened Def Con from 1.68867e-009 to 4.70429e-009
Heightened Def Con from 4.71162e-009 to 4.83857e-009
Heightened Def Con from 4.85617e-009 to 4.88742e-009
Heightened Def Con from 4.8924e-009 to 5.90802e-009
Heightened Def Con from 6.84034e-009 to 7.96534e-009
Heightened Def Con from 8.31824e-009 to 1.03182e-008
Heightened Def Con from 1.10819e-008 to 1.20819e-008
Heightened Def Con from 1.27695e-008 to 1.47695e-008

Date: Wed Mar 13 09:06:33 2019
Total elapsed time: 57.127 seconds.

tnom = 27
temp = 27
method = modified trap
totiter = 24241724
traniter = 24241724
tranpoints = 4277836
accept = 2851851
rejected = 1425992
matrix size = 6
fillins = 5
solver = Normal
Matrix Compiler1: 646 bytes object code size  0.2/0.1/[0.1]
Matrix Compiler2: off  [0.1]/0.1/0.1

