Circuit: * C:\Users\Huiskamer PC AR\Desktop\Projecton\Wilson-1\LTspice Circuits\EEPROM Programmer\EEPROM Programmer.asc

Direct Newton iteration for .op point succeeded.

Date: Sat Nov 24 22:48:22 2018
Total elapsed time: 8.498 seconds.

tnom = 27
temp = 27
method = modified trap
totiter = 1849734
traniter = 1849726
tranpoints = 531686
accept = 404857
rejected = 126829
matrix size = 11
fillins = 0
solver = Normal
Matrix Compiler1: 476 bytes object code size  0.2/0.2/[0.1]
Matrix Compiler2: 779 bytes object code size  0.2/0.3/[0.2]

