Circuit: * D:\WILSON\Logisim\LTspice Circuits\EEPROM Programmer\EEPROM Programmer.asc

Direct Newton iteration for .op point succeeded.

Date: Tue Jan 01 15:46:26 2019
Total elapsed time: 8.747 seconds.

tnom = 27
temp = 27
method = modified trap
totiter = 3100096
traniter = 3100088
tranpoints = 918441
accept = 685114
rejected = 233327
matrix size = 11
fillins = 0
solver = Normal
Matrix Compiler1: 476 bytes object code size  0.4/0.1/[0.1]
Matrix Compiler2: 779 bytes object code size  0.3/0.2/[0.1]

